SIMULATION
  SIMULATION_TYPE SUBSURFACE
  PROCESS_MODELS
    SUBSURFACE_FLOW flow
      MODE mphase
    / 
  / 
END

SUBSURFACE

CO2_DATABASE /Users/satkarra/src/pflotran-dev/database/co2data0.dat

GRID
  TYPE structured
  BOUNDS
    0.0 0.0 0.0 
    321.0 1.0 51.0 
  /
  ORIGIN 0.0 0.0 0.0 
  NXYZ 107 1 51 
  GRAVITY 0.0 0.0 -9.8068 
END

TIMESTEPPER flow
  TS_ACCELERATION 8
END

TIME
  FINAL_TIME 0.25 y
  INITIAL_TIMESTEP_SIZE 1.0000000d-06 y
  MAXIMUM_TIMESTEP_SIZE 50.0 y
  MAXIMUM_TIMESTEP_SIZE 200.0 y at 50.0 y
  MAXIMUM_TIMESTEP_SIZE 500.0 y at 20000.0 y
  MAXIMUM_TIMESTEP_SIZE 1000.0 y at 50000.0 y
  MAXIMUM_TIMESTEP_SIZE 5000.0 y at 100000.0 y
END

MATERIAL_PROPERTY soil1
  ID 1
  POROSITY 0.15
  TORTUOSITY 0.1
  ROCK_DENSITY 2650.0
  SPECIFIC_HEAT 1000.0
  THERMAL_CONDUCTIVITY_DRY 0.5
  THERMAL_CONDUCTIVITY_WET 0.5
  SATURATION_FUNCTION sf2
  PERMEABILITY
    PERM_X 1.0000000d-15
    PERM_Y 1.0000000d-15
    PERM_Z 1.0000000d-17
  /
END

NEWTON_SOLVER flow
  ATOL 1.0000000d-12
  RTOL 1.0000000d-12
  STOL 1.0000000d-30
  DTOL 1.0000000d+15
  ITOL 1.0000000d-08
  MAXIT 25
  MAXF 100
END

OUTPUT
  PERIODIC_OBSERVATION TIMESTEP 1
  PRINT_COLUMN_IDS
  FORMAT TECPLOT POINT
  FORMAT HDF5
  MASS_BALANCE
END

FLUID_PROPERTY
  DIFFUSION_COEFFICIENT 1.0000000d-09
END

SATURATION_FUNCTION  sf2
  PERMEABILITY_FUNCTION_TYPE NMT_EXP
  SATURATION_FUNCTION_TYPE NMT_EXP
  RESIDUAL_SATURATION LIQUID_PHASE 0.1
  RESIDUAL_SATURATION GAS_PHASE 0.0
  LAMBDA 0.762
  ALPHA 0.00075
  MAX_CAPILLARY_PRESSURE 1000000.0
  BETAC 2.0
  POWER 7.0
END

REGION all
  COORDINATES
    0.0 0.0 0.0 
    321.0 1.0 51.0 
  END
END

REGION top
  FACE top
  COORDINATES
    0.0 0.0 51.0 
    321.0 1.0 51.0 
  END
END

REGION west
  FACE west
  COORDINATES
    0.0 0.0 0.0 
    0.0 1.0 51.0 
  END
END

REGION east
  FACE east
  COORDINATES
    321.0 0.0 0.0 
    321.0 1.0 51.0 
  END
END

REGION well
  COORDINATES
    160.0 1.0 20.0 
    160.0 1.0 20.0 
  END
END

FLOW_CONDITION  initial
  DATUM 3.0 5.0 2.0
  TYPE
    PRESSURE  hydrostatic
    TEMPERATURE  zero_gradient
    CONCENTRATION  zero_gradient
    ENTHALPY  dirichlet
  END
  IPHASE 1
    PRESSURE 20000000.0 20000000.0
    TEMPERATURE 50.0 C
    CONCENTRATION 1.0000000d-06 M
    ENTHALPY 0.0 0.0
END

FLOW_CONDITION  top
  TYPE
    PRESSURE  dirichlet
    TEMPERATURE  zero_gradient
    CONCENTRATION  zero_gradient
    ENTHALPY  dirichlet
  END
  IPHASE 1
    PRESSURE 30000000.0 20000000.0
    TEMPERATURE 60.0
    CONCENTRATION 1.0000000d-06
    ENTHALPY 0.0 0.0
END

FLOW_CONDITION  source
  SYNC_TIMESTEP_WITH_UPDATE
  TYPE
    RATE  mass_rate
    PRESSURE  dirichlet
    TEMPERATURE  dirichlet
    CONCENTRATION  dirichlet
    ENTHALPY  dirichlet
  END
    RATE LIST
      TIME_UNITS y
      DATA_UNITS kg/s
        0.0  0.0  0.0001
        10.0  0.0  0.0
    /
    PRESSURE 40000000.0 20000000.0
    TEMPERATURE 70.0
    CONCENTRATION 0.0
    ENTHALPY 0.0 0.0
END

INITIAL_CONDITION
  FLOW_CONDITION initial
  REGION all
END

BOUNDARY_CONDITION west
  FLOW_CONDITION initial
  REGION west
END

BOUNDARY_CONDITION east
  FLOW_CONDITION initial
  REGION east
END

SOURCE_SINK
  FLOW_CONDITION source
  REGION well
END

STRATA
  REGION all
  MATERIAL soil1
END

END_SUBSURFACE

