SIMULATION
  SIMULATION_TYPE SUBSURFACE
  PROCESS_MODELS
    SUBSURFACE_FLOW flow
      MODE MPHASE 
    /
  /
END

SUBSURFACE

CO2_DATABASE /home/satkarra/src/pflotran-dev-PM-RHEL-6.5-nodebug/database/co2data0.dat

!=========================== regression ===================================
REGRESSION
  CELLS
    2086
  /
  CELLS_PER_PROCESS 2
END

!=========================== discretization ===================================
GRID
TYPE structured
ORIGIN 0.d0 0.d0 0.d0
NXYZ 107  1  51
BOUNDS
0.d0 0.d0 0.d0
321.d0 1.d0 51.d0
/
END
!
!=========================== solver options ===================================
!TIMESTEPPER
!TS_ACCELERATION 8
!/

NEWTON_SOLVER FLOW
ATOL 1D-12
RTOL 1D-12
STOL 1D-30
DTOL 1D15
ITOL 1D-8
MAXIT 25
MAXF 100
END
!

NEWTON_SOLVER TRAN
ATOL 1D-12
RTOL 1D-12
STOL 1D-30
DTOL 1D15
ITOL 1D-8
MAXIT 25
MAXF 100
END
!

!=========================== timestepper ======================================
TIMESTEPPER FLOW
TS_ACCELERATION 8
/

!=========================== times ============================================
TIME
FINAL_TIME 0.25d0 y
INITIAL_TIMESTEP_SIZE 1.d-6 y
MAXIMUM_TIMESTEP_SIZE 50.d0 y
!MAXIMUM_TIMESTEP_SIZE 50.d0 y at 15. y
MAXIMUM_TIMESTEP_SIZE 200.d0 y at 50. y
MAXIMUM_TIMESTEP_SIZE 500.d0 y at 20000. y
MAXIMUM_TIMESTEP_SIZE 1000.d0 y at 50000. y
MAXIMUM_TIMESTEP_SIZE 5000.d0 y at 100000. y
/

!=========================== output options ===================================
OUTPUT
MASS_BALANCE
PRINT_COLUMN_IDS
PERIODIC_OBSERVATION TIMESTEP 1
FORMAT TECPLOT POINT
FORMAT HDF5
/

!=========================== fluid properties =================================
FLUID_PROPERTY 
DIFFUSION_COEFFICIENT 1.d-9
/

!=========================== material properties ==============================
MATERIAL_PROPERTY soil1
ID 1
POROSITY 0.15d0
TORTUOSITY 1d-1
ROCK_DENSITY 2.65E3
SPECIFIC_HEAT 1E3
THERMAL_CONDUCTIVITY_DRY 0.5
THERMAL_CONDUCTIVITY_WET 0.5 
SATURATION_FUNCTION sf2
PERMEABILITY
PERM_X 1.d-15
PERM_Y 1.d-15
PERM_Z 1.d-17
/
/
!=========================== saturation functions =============================
SATURATION_FUNCTION sf2
PERMEABILITY_FUNCTION_TYPE NMT_EXP
SATURATION_FUNCTION_TYPE NMT_EXP
!RESIDUAL_SATURATION 0.03
RESIDUAL_SATURATION LIQUID_PHASE 0.1
RESIDUAL_SATURATION GAS_PHASE 0.0
LAMBDA 0.762d0
ALPHA 7.5d-4
MAX_CAPILLARY_PRESSURE 1.d6
BETAC 2.d0
POWER 7.d0
/

!=========================== regions ==========================================
REGION all
COORDINATES
0.d0 0.d0 0.d0
321.D0 1.D0  51.D0
/
END

REGION top
FACE TOP
COORDINATES
0.d0 0.d0  51.d0
321.d0 1.d0 51.d0
/
END

REGION west
FACE WEST
COORDINATES
0.d0 0.d0 0.d0
0.d0 1.d0 51.d0
/
END

REGION east
FACE EAST
COORDINATES
321.d0 0.d0 0.d0
321.d0 1.d0 51.d0
/
END

REGION well
COORDINATES
160.d0 1.d0 20.d0
160.d0 1.d0 20.d0
/
END

!=========================== flow conditions ==================================
FLOW_CONDITION initial
  TYPE
    PRESSURE hydrostatic
    TEMPERATURE zero_gradient
    CONCENTRATION zero_gradient
    ENTHALPY dirichlet
  /
!  DATUM
!    3.0 5.0 2.0
!    2.0 1.0 6.0
!  DATUM
!    FILE file_name
IPHASE 1
PRESSURE 2D7 2D7
TEMPERATURE 50 
CONCENTRATION 1d-6 
ENTHALPY 0.d0 0.d0
/

FLOW_CONDITION top
UNITS Pa,C,M,yr
TYPE
PRESSURE dirichlet
TEMPERATURE zero_gradient
CONCENTRATION zero_gradient
ENTHALPY dirichlet
/
IPHASE 1
PRESSURE 3D7 2D7
TEMPERATURE 60
CONCENTRATION 1d-6
ENTHALPY 0.d0 0.d0
/

FLOW_CONDITION source
UNITS Pa,C,M,yr
SYNC_TIMESTEP_WITH_UPDATE
TYPE
RATE mass_rate
PRESSURE dirichlet
TEMPERATURE dirichlet
CONCENTRATION dirichlet
ENTHALPY dirichlet
/
RATE LIST
  TIME_UNITS y
  DATA_UNITS kg/s
  0.  0. 1.d-4
  10. 0. 0.
/
PRESSURE 4.d7 2.d7
TEMPERATURE 70.d0
CONCENTRATION 0.D0
ENTHALPY 0.d0 0.d0
/

!=========================== condition couplers ===============================
! initial condition
INITIAL_CONDITION initial
FLOW_CONDITION initial
REGION all
END

BOUNDARY_CONDITION west
FLOW_CONDITION initial
REGION west
END

BOUNDARY_CONDITION east
FLOW_CONDITION initial
REGION east
END

SOURCE_SINK well
FLOW_CONDITION source
REGION well
END


!=========================== stratigraphy couplers ============================
STRATA
REGION all
MATERIAL soil1
END

END_SUBSURFACE
