SIMULATION
  SIMULATION_TYPE SUBSURFACE
  PROCESS_MODELS
    SUBSURFACE_TRANSPORT transport
    / 
  / 
END

SUBSURFACE

UNIFORM_VELOCITY 14.4 0.0 0.0 m/yr 

CHEMISTRY
  PRIMARY_SPECIES
    A(aq)
  /
  DATABASE /Users/satkarra/src/pflotran-dev/database/hanford.dat
  MOLAL
  OUTPUT
    All
  /
END

GRID
  TYPE structured
  BOUNDS
    0.0 0.0 0.0 
    0.04 1.0 1.0 
  /
  NXYZ 100 1 1 
  ORIGIN 0.0 0.0 0.0 
END

TIMESTEPPER flow
  TS_ACCELERATION 25
  MAX_TS_CUTS 10
  MAX_STEPS 10000
END

TIME
  FINAL_TIME 10000.0 s
  INITIAL_TIMESTEP_SIZE 1.000d-06 s
  MAXIMUM_TIMESTEP_SIZE 10.0 s
  MAXIMUM_TIMESTEP_SIZE 100.0 s at 5000.0 s
  MAXIMUM_TIMESTEP_SIZE 1000.0 s at 50000.0 s
END

MATERIAL_PROPERTY soil1
  ID 1
  POROSITY 1.0
  TORTUOSITY 1.0
  ROCK_DENSITY 2800.0
  SPECIFIC_HEAT 1000.0
  THERMAL_CONDUCTIVITY_WET 0.5
  SATURATION_FUNCTION default
  PERMEABILITY
    PERM_X 1.000d-15
    PERM_Y 1.000d-15
    PERM_Z 1.000d-15
  /
END

NEWTON_SOLVER transport
  ATOL 1.000d-15
  RTOL 1.000d-10
  STOL 1.000d-30
  ITOL 1.000d-08
  MAXIT 100
  MAXF 100
END

OUTPUT
  TIMES  s 26042.0 39063.0 52083.0 1000000.0
  PERIODIC_OBSERVATION TIMESTEP 1
  PRINT_COLUMN_IDS
  FORMAT TECPLOT POINT
END

FLUID_PROPERTY
  DIFFUSION_COEFFICIENT 1.000d-09
END

SATURATION_FUNCTION  default
  SATURATION_FUNCTION_TYPE VAN_GENUCHTEN
  RESIDUAL_SATURATION LIQUID_PHASE 0.1
  RESIDUAL_SATURATION GAS_PHASE 0.0
  LAMBDA 0.762
  ALPHA 0.00075
  MAX_CAPILLARY_PRESSURE 1000000.0
END

REGION all
  COORDINATES
    0.0 0.0 0.0 
    0.04 1.0 1.0 
  END
END

REGION west
  FACE west
  COORDINATES
    0.0 0.0 0.0 
    0.0 1.0 1.0 
  END
END

REGION east
  FACE east
  COORDINATES
    0.04 0.0 0.0 
    0.04 1.0 1.0 
  END
END

REGION obs
  COORDINATES
    0.04 0.0 0.0 
    0.04 1.0 1.0 
  END
END

OBSERVATION
  REGION obs
END

TRANSPORT_CONDITION initial
  TYPE dirichlet
  CONSTRAINT_LIST
    0.0  initial
  END
END

TRANSPORT_CONDITION west
  TYPE dirichlet
  CONSTRAINT_LIST
    0.0  west
  END
END

TRANSPORT_CONDITION east
  TYPE zero_gradient
  CONSTRAINT_LIST
    0.0  east
  END
END

INITIAL_CONDITION initial
  FLOW_CONDITION initial
  TRANSPORT_CONDITION initial
  REGION all
END

BOUNDARY_CONDITION west
  FLOW_CONDITION west
  TRANSPORT_CONDITION west
  REGION west
END

BOUNDARY_CONDITION east
  FLOW_CONDITION east
  TRANSPORT_CONDITION east
  REGION east
END

STRATA
  REGION all
  MATERIAL soil1
END

CONSTRAINT initial
  CONCENTRATIONS
    A(aq)  0.1  T
  /
END

CONSTRAINT west
  CONCENTRATIONS
    A(aq)  1.000d-08  T
  /
END

CONSTRAINT east
  CONCENTRATIONS
    A(aq)  0.01  T
  /
END

END_SUBSURFACE

