SIMULATION
  SIMULATION_TYPE SUBSURFACE
  PROCESS_MODELS
    SUBSURFACE_FLOW flow
      MODE richards
    / 
  / 
END

SUBSURFACE

REGRESSION
  CELLS_PER_PROCESS 5
END

GRID
  TYPE structured
  BOUNDS
    0.0 0.0 0.0 
    1.0 1.0 10.0 
  /
  NXYZ 1 1 100 
END

TIME
  FINAL_TIME 10.0 y
  INITIAL_TIMESTEP_SIZE 1.0 h
  MAXIMUM_TIMESTEP_SIZE 0.05 y
END

MATERIAL_PROPERTY soil1
  ID 1
  POROSITY 0.25
  SATURATION_FUNCTION sf1
  PERMEABILITY
    PERM_ISO 1.000d-12
  /
END

LINEAR_SOLVER flow
  SOLVER DIRECT
END

OUTPUT
  TIMES  y 0.1 0.2 0.3 1.0
  FORMAT TECPLOT POINT
END

FLUID_PROPERTY
  DIFFUSION_COEFFICIENT 1.000d-09
END

SATURATION_FUNCTION  sf1
  SATURATION_FUNCTION_TYPE VAN_GENUCHTEN
  RESIDUAL_SATURATION 0.1
  LAMBDA 0.5
  ALPHA 0.0001
END

REGION all
  COORDINATES
    0.0 0.0 0.0 
    1.0 1.0 10.0 
  END
END

REGION top
  FACE top
  COORDINATES
    0.0 0.0 10.0 
    1.0 1.0 10.0 
  END
END

REGION bottom
  FACE bottom
  COORDINATES
    0.0 0.0 0.0 
    1.0 1.0 0.0 
  END
END

FLOW_CONDITION  initial
  DATUM 0.0 0.0 1.0
  TYPE
    PRESSURE  hydrostatic
  END
    PRESSURE 101325.0
END

FLOW_CONDITION  recharge
  TYPE
    FLUX  neumann
  END
    FLUX LIST
      TIME_UNITS y
      DATA_UNITS cm/y
        0.0  100.0
        0.2  0.0
    /
END

INITIAL_CONDITION initial
  FLOW_CONDITION initial
  REGION all
END

BOUNDARY_CONDITION outlet
  FLOW_CONDITION initial
  REGION bottom
END

BOUNDARY_CONDITION inlet
  FLOW_CONDITION recharge
  REGION top
END

STRATA
  REGION all
  MATERIAL soil1
END

END_SUBSURFACE

